Geom Title=Test area
Program Version=7.00
Viewing Rectangle= 2756620.43 , 2780296.57 , 1107037.57 , 1070601.43 

Storage Area=Interior        ,2773672.9104184,1084852.776177
Storage Area Surface Line= 22 
2772555.487168671084760.23301993                
2772523.434722021085365.51368717                
2772686.699514531085302.18342124                
2772732.139391861085287.99512662                
2772838.438409821085279.81830345                
2772877.556120291085269.58210144                
2772935.353914591085249.94532592                
 2773088.19123291085201.60256547                
2773274.550022761085159.62789235                
2773520.988340181085103.15556377                
2773649.461858061085077.90626517                
2773746.773359581085056.44567378                
2773855.273816831085019.34141012                
2774241.701587611085078.44169272                
2774611.391856221085133.71422655                
2774868.821909681085159.96741347                
2774923.896861131084993.41034611                
2774957.410906381084861.66550825                
2774968.368234651084757.85959569                
 2773811.01093611084400.02904002                
2773072.002511031084352.67354577                
2772555.487168671084760.23301993                
Storage Area Type= 1 
Storage Area Area=
Storage Area Min Elev=
Storage Area Is2D=-1
Storage Area Point Generation Data=,,200,200
Storage Area 2D Points= 32 
2772599.51629583 1085193.56892072772891.376568791085105.99846317
2773312.266865721085001.847634912774691.440070031085041.38749595
2772697.62741215 1084886.87236022772897.62741215 1084886.8723602
2773097.62741215 1084886.87236022773835.225449851084925.69560862
2774148.239399391084926.89932511 2774497.62973411084829.54829156
2774697.62741215 1084886.87236022774897.62741215 1084886.8723602
2772697.62741215 1084686.87236022772897.62741215 1084686.8723602
2773097.62741215 1084686.87236022773297.62741215 1084686.8723602
2773497.62741215 1084686.87236022773697.62741215 1084686.8723602
2773897.62741215 1084686.87236022774097.62741215 1084686.8723602
2774294.982267321084702.648180622774497.62741215 1084686.8723602
2774697.62741215 1084686.87236022773097.62741215 1084486.8723602
2773297.62741215 1084486.87236022773497.62741215 1084486.8723602
2773697.62741215 1084486.87236022773897.62741215 1084486.8723602
2773571.085550031084943.651717722774824.152526691085059.97529763
2774451.349931031084962.957083522773116.486700291085043.77890088
Storage Area 2D PointsPerimeterTime=19May2026 15:47:38
Storage Area Mannings=0.06
2D Cell Volume Filter Tolerance=0.01
2D Cell Minimum Area Fraction=0.01
2D Face Profile Filter Tolerance=0.01
2D Face Area Elevation Profile Filter Tolerance=0.01
2D Face Area Elevation Conveyance Ratio=0.02
2D Face Min Length Ratio=0.05
2D Face Area Laminar Depth=0.2
2D Multiple Face Mann n=0
2D Composite LC=0

Storage Area=Watershed       ,2774153.6317225,1085384.7274261
Storage Area Surface Line= 24 
2775598.206713561084913.73473036                
 2775084.05005391084904.69598313                
2774955.510412351084914.66029642                
2774933.502487241084996.21283346                
 2774877.17811661085166.92774459                
2774871.922548191085170.33521963                
2774610.144483841085143.63874821                
2774240.206184231085088.32946903                
2773856.187857881085029.59729595                
2773749.476767391085066.09001218                
2773651.503193611085087.69627258                
2773523.061827871085112.93900949                
 2773275.24888571085168.71310032                
2773090.812619871085211.26199569                
2772938.470707521085259.44793227                
2772880.43406849 1085279.1654163                
2772840.101137151085289.71985927                
2772734.037026881085297.87896583                
2772690.002002631085311.62828488                
2772527.250332551085374.75973228                
2772675.113244311085905.88769547                
2773700.30733405  1085599.484689                
2775619.072644141085670.89246696                
2775598.206713561084913.73473036                
Storage Area Type= 1 
Storage Area Area=
Storage Area Min Elev=
Storage Area Is2D=-1
Storage Area Point Generation Data=,,400,400
Storage Area 2D Points= 29 
 2773376.02530811085296.140086712773842.001903491085236.39949756
2774132.170479371085244.933867442775403.320342781084951.72736524
2775081.091571551085357.740993492775043.973696831085391.24119313
2775114.411754811085394.659411922775077.293880091085428.15961156
2775047.771388291085320.822575062775010.653513571085354.32277471
2775014.451205031085283.904156632774977.333330311085317.40435628
2774981.13102177 1085246.98573822774944.013147051085280.48593785
  2775120.1082921085289.031484812774971.636793121085423.03228339
2775053.467925481085215.19464795 2774904.99642661085349.19544653
2774838.356060081085275.35860968 2775198.14173291085151.61246744
 2774826.96298571085486.61446389 2772987.50583561085371.76761259
2772680.343408721085471.243653712773083.711502271085625.52260126
2772696.546259671085726.036654632774425.752803211085251.76136334
2773621.815160611085260.295733222774627.163932351085255.17511129
2773162.170122751085331.93587332
Storage Area 2D PointsPerimeterTime=19May2026 15:46:11
Storage Area Mannings=0.06
2D Cell Volume Filter Tolerance=0.01
2D Cell Minimum Area Fraction=0.01
2D Face Profile Filter Tolerance=0.01
2D Face Area Elevation Profile Filter Tolerance=0.01
2D Face Area Elevation Conveyance Ratio=0.02
2D Face Min Length Ratio=0.05
2D Face Area Laminar Depth=0.2
2D Multiple Face Mann n=0
2D Composite LC=0

Connection=Bridge          ,2772824.7581016,1085423.9810706
Connection Desc=
Connection Line=2
2772857.443491311085549.880349252772792.072711981085298.08179185
Connection Centerline Profile=64
       0  767.52   13.28  766.85   23.46   766.3   33.62  765.85   37.01  765.69
    40.4  765.56   43.79  765.41   50.57  765.06   57.35  764.81   67.51  764.38
   74.29  764.07  104.19   763.1  114.96   762.7  118.36  762.55  135.31  762.03
  145.47  761.65  152.25  761.43  165.81  760.93   169.2  760.79  179.37  760.47
  182.76  760.09  186.15  759.22  189.54  757.92  192.93  756.46  196.32  754.93
  199.71  753.42   203.1  752.01  206.49  750.67  209.14  749.96  209.88  749.78
  210.73  749.67  213.14  749.22  214.42   748.7  215.45  748.34  216.49  748.04
  217.52  747.71  218.55   747.4  219.59  747.11  220.33  746.94  221.65  746.68
  221.97  746.53  222.68  746.16  223.72  745.18  224.75  744.88  225.78  744.94
  226.89   745.1  227.85  745.21  228.88  745.36  229.92  745.53  230.95  746.07
  231.98  746.66  232.63  746.95  235.08  747.95  236.12  748.28  237.15  748.63
  239.22   749.8  240.02  750.21  240.27  750.56  241.66  751.24  243.77  752.62
  250.55   754.7  253.94  755.68  257.33   756.5  260.15  756.87
Connection Last Edited Time=Feb/10/2026 10:35:16
Conn Near Repeats=1
Connection Up SA=Watershed       
Connection Dn SA=Watershed       
Conn Routing Type= 32 
Conn Use RC Family=False
Conn OverFlow Method 2D=False
Conn Weir WD=61.5
Conn Weir Coef=3
Conn Weir WSCriteria=-1 
Conn Weir Is Ogee= 0 
Conn Simple Spill Pos Coef=0.05
Conn Simple Spill Neg Coef=0.05
Conn Weir SE= 0 
Conn HTab HWMax=775

Conn Outlet Rating Curve= 0 ,False,,
Conn BR: Bridge=-1,0,-1,-1, 0 ,0.3,0.5
Conn BR: Pressure-Weir=0.08,,0.25,,0.016
Conn BR: Deck Dist Width WeirC Skew NumUp NumDn MinLoCord MaxHiCord MaxSubmerge Is_Ogee
40,61.5,3,0, 6, 6, , , 0.98, 0, 0,0,,
       0     195     195   245.5   245.5   345.5
  767.86  760.06  766.06  764.04  758.04  754.04
                   755.9  753.88                
       0     195     195   245.5   245.5   345.5
  767.86  760.06  766.06  764.04  758.04  754.04
                   755.9  753.88                
Conn BR: BR SE=1,104
       0  767.76    4.32   767.6    8.08   767.4    9.52   767.3   10.77  767.25
   13.46  767.08   17.87  766.69   21.26  766.46   28.04  766.11   29.61  766.09
    32.3  766.09   34.54  766.13   35.63  766.12   38.21  766.19   40.37  766.17
   43.06  766.07    43.7  766.02   45.75  765.92   48.27  765.74   51.13   765.6
   51.77  765.54   53.83   765.5   58.55  765.45   61.74  765.28   64.59  765.27
   66.59   765.2   67.28  765.19   69.97  765.06   71.16  764.96   72.66  764.87
    74.8   764.7   75.74  764.64   78.04  764.54   78.89  764.49   86.12  764.28
    91.5  764.08   94.19  763.94   96.88  763.78   98.63  763.65  102.61  763.38
     106  763.23  109.39  763.07  118.41  762.75  133.12  762.15  136.51  762.09
  139.84  762.14  143.29  762.15  150.07  762.01  153.46  762.07  156.85  762.02
  160.24  761.86  164.16  761.72  167.02  761.59  170.41  761.39   173.8  761.11
  177.18  760.71  181.04  759.83  182.99  759.41  183.96  759.16  185.68  758.48
  187.35  757.78  188.37  757.31  190.74  756.15   192.3  755.47  194.13  754.73
  196.45  753.91  199.14  752.92  201.83  751.88   204.3  750.87  205.36  750.52
  207.69  749.79  209.92   747.6  211.05  746.95  211.28  746.23  212.07  745.25
   213.1   744.9  213.74  744.73  215.17   744.3  216.18  744.28  217.02  744.36
  218.27   744.4   219.3  744.46  221.37  744.81  223.44  745.03  225.22  745.16
  227.57  745.37  230.67  745.71  230.96  745.83   231.7  746.16  232.73  746.88
  233.77  747.51  236.87  748.32  238.93  748.84  239.97  749.45     241  750.11
  241.14  750.34  241.59  751.19  245.13  752.37  247.58  753.15  248.37  753.43
  251.76  754.37  255.15     755  257.58  755.35  260.15  755.77
Conn BR: BR Bank Stations=1,0,260.15
Conn BR: BR Mann=1,1
       0     .03
Conn BR: BR SE=2,78
       0  767.42    1.91   767.3     5.3  767.14    8.69  767.05   14.63  767.05
   17.32     767   20.01  766.91   28.08  766.57   33.46  766.31   37.51  766.09
   42.58  765.89   50.56  765.47   56.14  765.27   60.37  765.09   65.76  764.82
    69.7   764.6   73.09  764.38   79.21  763.91    81.9  763.73   83.26  763.66
   86.65  763.57   90.04  763.45   95.36  763.14   98.05  763.01  110.37  762.54
  117.15  762.36  123.93  762.09   134.1  761.74  151.05  761.21  157.83   760.9
  168.01   760.5  176.09  760.15  178.17  760.06  181.56  759.88  184.95  759.37
  186.85  758.64  188.34  758.06  192.23  756.31  195.11  755.06   198.5  753.64
  205.28  750.89  208.67  749.64  209.18  749.55  211.07  749.12  212.06  748.96
  212.88  748.75   214.2  748.58  215.73  748.19  216.77  747.64  217.08  747.35
   217.8  746.64  218.83  745.48  219.87  745.07   220.9  744.76  221.93   744.5
  225.03  744.63  226.07   744.8   227.1  744.94  228.13  745.19  229.17  745.53
   230.2  745.98  231.23  746.48   233.3  747.55   234.3  747.88  235.36  748.17
  237.43  748.93  238.46  749.29  238.89  749.41  239.36  750.45  241.28  751.15
  242.57  752.26  243.36  752.41  246.05     753  248.74  753.67  252.74  754.73
  256.81  755.86  259.51   756.5  260.15  756.51
Conn BR: BR Bank Stations=2,0,260.15
Conn BR: BR Mann=2,1
       0     .03
Conn BR: BR Coef=-1 , 0 , 0 ,,,0.8,0,,0,,0
Conn BR: BR Skew=0
Conn BR: XS SE=1,100
       0  769.04    1.14  769.09    4.53  769.12    7.92  768.97    8.79  768.88
   11.48  768.71   14.17  768.64   16.86  768.64   22.24  768.72   25.17   768.8
   28.26  768.78   31.65  768.93      33  769.02   33.92  769.05    35.7  769.14
   41.82  769.34   43.77  769.35   45.21  769.34    48.6  769.28   59.91  769.01
   65.54  768.86   68.93  768.69   72.32  768.59    79.1  768.31   86.82  767.89
   89.52  767.77   92.21  767.68   96.05  767.58  100.28  767.51  102.83  767.51
  103.51  767.47  106.22  767.29  109.61  766.79     113  766.11  116.39  765.51
  119.78  765.02  123.17  764.76  126.56  764.64  136.73  764.37  140.12  764.32
   143.5  764.49  146.89  764.76  150.28  764.92  153.67  764.96  157.06  764.91
  160.45  764.81  164.86  764.65  167.55  764.58  170.62  764.58  174.01  764.83
  175.63  764.83   177.4  764.81  178.32  764.68  180.79  764.27   183.7  763.47
  184.18  763.32     185  763.02  186.39  762.53  187.57  762.08  189.08  761.45
  190.96  760.64  194.35  758.83  197.15  757.05  201.13  754.46  202.54   753.7
  204.52  752.66  205.23  752.37  207.92  751.33  210.61  750.57   211.3   750.4
   213.3  750.04  214.69  749.81  216.04  747.07  216.47  746.53  218.32  745.46
  219.36     745  220.39  744.84  221.42  744.73  222.46  744.69  224.52  744.73
  225.56  744.73  226.59   744.8  228.65  745.01  229.69   745.1  231.75  745.35
  232.79  745.55  234.85  746.45  235.89  746.71  238.99  747.32  240.02  747.73
  240.26  747.85  241.05  748.26  242.09  748.83  243.12  749.33  245.19  749.85
  248.58  750.47  251.97  751.38  255.36  752.35  258.75  753.22  260.15  753.56
Conn BR: XS Bank Stations=1,0,260.15
Conn BR: XS Mann=1,1
       0     .03
Conn BR: XS SE=2,94
       0   768.8    1.69  768.75    8.47  768.69   15.25  768.52   18.64  768.47
   22.03  768.58   25.42  768.79   28.81   768.9   30.07  768.88    32.2  768.83
   35.59  768.63   38.98  768.37   42.37  768.15   45.76  767.99   49.15  767.84
   52.54  767.75   56.97  767.67   66.09  767.45   69.48  767.45   72.87  767.36
   76.26  766.99    78.5  766.54   79.65   766.3   83.04   765.5   86.43  764.62
   89.82  763.95   93.21  763.49    96.6  763.12   99.99   762.8  103.38  762.57
  105.41  762.52  106.77  762.49   108.1   762.5  110.16  762.52  113.55  762.61
  120.33   762.7  123.72  762.72  127.11  762.68   130.5  762.61  137.28  762.52
  140.67  762.61  144.05  762.74  147.44  762.84  150.83  762.86  154.22  762.85
  156.54   762.9  157.61  762.92     161  763.18  167.78  764.01  171.17  764.27
  174.56  764.19  175.38  764.05  177.95  763.58  181.34  762.38  184.73  760.85
  191.51  757.57   194.9  756.04  198.29   754.6  201.68  753.21  205.07     752
  208.46  750.87  211.85  749.86  212.31  749.16  212.58  748.71  213.62  747.97
  214.65  746.88  215.68  745.98  217.75  745.09  218.78  744.67  219.81  744.44
  220.85  744.41  222.91  744.37  223.95   744.4  225.01  744.53  226.01  744.71
  228.08  745.36  229.11   745.8  231.18  747.11  232.21  747.44  234.28  748.15
  236.34  748.66  237.31  748.93  238.41   749.3  238.53  749.26  238.96  749.19
  239.96  749.36  242.35  749.74  245.74  750.17  249.13  750.75  252.52  751.55
  255.91  752.45   258.8  753.18   259.3   753.3  260.15  753.43
Conn BR: XS Bank Stations=2,0,260.15
Conn BR: XS Mann=2,1
       0     .03
Connection=Culvert         ,2774944.3490537,1085242.5406602
Connection Desc=
Connection Line=2
2775009.426481161085313.641528442774879.271626261085171.43979196
Connection Centerline Profile=0
Connection Last Edited Time=Feb/09/2026 14:10:05
Conn CellSize Min=50
Conn CellSize Max=200
Conn Near Repeats=1
Connection Up SA=Watershed       
Connection Dn SA=Watershed       
Conn Routing Type= 1 
Conn Use RC Family=False
Conn OverFlow Method 2D=False
Conn Weir WD=10
Conn Weir Coef=3
Conn Weir WSCriteria=-1 
Conn Weir Is Ogee= 0 
Conn Simple Spill Pos Coef=0.05
Conn Simple Spill Neg Coef=0.05
Conn Weir SE= 37 
       0  754.52    3.07  754.48    4.47  754.51    5.83  754.57    8.99  754.67
   16.54  754.68   23.45  754.76   26.16  754.81   31.21  755.02   38.61  755.44
   41.31  755.57   45.14  755.73   51.92  755.94   55.99  756.03   62.77  756.27
   69.72  756.44   74.97   756.6   79.54  756.72   86.01  756.98   87.17  757.01
   88.52  757.01   91.24  756.99   95.81  756.88   97.23  756.86  101.48  756.86
  110.68  756.98  122.41  757.05  127.48  757.11  143.95   757.2  152.66   757.2
  157.66  757.23  165.79  757.33  169.43  757.35  172.57  757.41  177.84  757.47
  180.71  757.48  192.77  757.68
Connection Culv=2,9,13,205,0.013,0.2,1,8,3,740.9,728.6, 2 ,Culvert #1  , 0 ,,0
     100     100     114     114
Conn Culvert Barrel=1,Left,3
        2774847.        1085269.        2774981.        1085244.
        2775018.      1085063.56
Conn Culvert Barrel=2,Right,3
        2774844.        1085250.        2774967.        1085230.
        2774998.        1085064.
Conn Culv Bottom n=0.013

Conn Outlet Rating Curve= 0 ,False,,
Conn BR: Bridge=-1,0,-1,-1, 0 ,0.3,0.5
Conn BR: Pressure-Weir=0.08,,0.25,,0.016
Conn BR: Deck Dist Width WeirC Skew NumUp NumDn MinLoCord MaxHiCord MaxSubmerge Is_Ogee
,10,3,0, 0, 0, , , 0.98, 0, 0,0,,
Conn BR: BR SE=1,0
Conn BR: BR Bank Stations=1,,
Conn BR: BR Mann=1,0
Conn BR: BR SE=2,0
Conn BR: BR Bank Stations=2,,
Conn BR: BR Mann=2,0
Conn BR: BR Coef=-1 , 0 , 0 ,,,0.8,-1,,0,,0
Conn BR: BR Skew=0
Conn BR: XS SE=1,0
Conn BR: XS Bank Stations=1,,
Conn BR: XS Mann=1,0
Conn BR: XS SE=2,0
Conn BR: XS Bank Stations=2,,
Conn BR: XS Mann=2,0
Connection=Levee           ,2773820.4291158,1085128.6688266
Connection Desc=
Connection Line=13
       2774859.2       1085164.4       2774610.3       1085138.3
2774240.672360381085082.83654631       2773855.2       1085023.5
       2773748.9       1085061.1       2773651.1       1085082.7
       2773523.4        1085107.       2773274.6       1085163.8
        2773090.       1085205.82772936.888118631085254.50104555
2772879.072330271085274.112568472772839.339894221085284.55506769
2772793.629596521085288.30606934
Connection Centerline Profile=0
Connection Last Edited Time=May/18/2026 10:50:12
Conn Near Repeats=1
Connection Up SA=Watershed       
Connection Dn SA=Interior        
Conn Routing Type= 1 
Conn Use RC Family=False
Conn OverFlow Method 2D=False
Conn Weir WD=2
Conn Weir Coef=2.6
Conn Weir WSCriteria=-1 
Conn Weir Is Ogee= 0 
Conn Simple Spill Pos Coef=0.05
Conn Simple Spill Neg Coef=0.05
Conn Weir SE= 47 
       0  758.15  75.964  758.15 182.779  758.21 282.434  758.15 366.659  758.23
  450.14  758.26 549.266  758.18 647.727  757.96 728.298  757.72 838.806   757.5
 907.656  757.57 971.494  757.331013.087  756.98 1045.61   756.6  1100.4  756.69
1119.273   756.71123.039  756.721155.203  756.771187.085  756.721226.087  756.65
1245.035  756.571250.972  756.631266.908   756.41310.858  756.66 1358.02   756.8
1408.427  756.761460.877  756.74 1508.93  756.681555.237  756.631611.574  756.69
 1657.43   756.81703.631  757.041752.663  756.851800.106  756.941844.733  756.62
1862.576  756.981885.499  758.561907.297  760.121923.921  760.041943.485  758.79
 1960.12  756.461987.463   756.62019.099  756.522060.413  756.58 2101.41  756.71
 2107.58  756.73 2110.13   756.7

Conn Outlet Rating Curve= 0 ,False,,
Conn BR: Bridge=-1,0,-1,-1, 0 ,0.3,0.5
Conn BR: Pressure-Weir=0.08,,0.25,,0.016
Conn BR: Deck Dist Width WeirC Skew NumUp NumDn MinLoCord MaxHiCord MaxSubmerge Is_Ogee
,2,2.6,0, 0, 0, , , 0.98, 0, 0,0,,
Conn BR: BR SE=1,0
Conn BR: BR Bank Stations=1,,
Conn BR: BR Mann=1,0
Conn BR: BR SE=2,0
Conn BR: BR Bank Stations=2,,
Conn BR: BR Mann=2,0
Conn BR: BR Coef=-1 , 0 , 0 ,,,0.8,-1,,0,,0
Conn BR: BR Skew=0
Conn BR: XS SE=1,0
Conn BR: XS Bank Stations=1,,
Conn BR: XS Mann=1,0
Conn BR: XS SE=2,0
Conn BR: XS Bank Stations=2,,
Conn BR: XS Mann=2,0
BC Line Name=DSBC                            
BC Line Storage Area=Watershed       
BC Line Start Position= 2774963.29943387 , 1084901.41112088 
BC Line Middle Position= 2775271.26797125 , 1084894.3660409 
BC Line End Position= 2775579.51198136 , 1084898.36056371 
BC Line Arc= 3 
2774963.299433871084901.411120882775108.709325441084892.25944938
2775579.511981361084898.36056371
BC Line Text Position= 2775271.26797125 , 1084894.3660409 
LCMann Time=Dec/30/1899 00:00:00
LCMann Region Time=Dec/30/1899 00:00:00
LCMann Table=6
Developed, Open Space,0.08
Developed, Low Intensity,0.1
Developed, Medium Intensity,0.12
Developed, High Intensity,0.14
Deciduous Forest,0.12
Shrub-Scrub,0.08
LCMann Region Name=Drainage Ditch
LCMann Region Table=14
NoData,0.03
Open Water,0.03
Developed, Open Space,0.03
Developed, Low Intensity,0.03
Developed, Medium Intensity,0.03
Developed, High Intensity,0.03
Barren Land Rock-Sand-Clay,0.03
Deciduous Forest,0.03
Shrub-Scrub,0.03
Grassland-Herbaceous,0.03
Pasture-Hay,0.03
Cultivated Crops,0.03
Woody Wetlands,0.03
Emergent Herbaceous Wetlands,0.03
LCMann Region Polygon=71
2765007.990575761089217.971226962764928.912067121089431.70156876
2765186.969812821089595.032305872769421.118210381087041.24274007
 2773292.69888161085575.64440417 2774420.86830681085563.88392637
2774947.336944071085831.414853782775059.548511541085793.26273772
2775473.587867811085433.675617562775518.810661691085262.27123972
2775610.633172331085177.951409622775622.177438041084765.04882541
2777222.267481171084776.955729672777465.401206851084513.15495119
2777377.334653631084386.489181332776995.917211651084147.49340676
 2776797.17503441084340.832624772774971.979543221084347.72161214
2774974.753336171084591.450669622774974.75333617 1084757.9850367
2774964.251168881084864.006916042774932.18258782 1084989.9924498
2774874.732695281085159.567909852774866.617979361085166.78779749
2774545.66478677 1085131.56213042774295.113081351085092.05397725
2773855.264716741085026.339771462773745.499659691085064.54830101
2773519.449756361085110.066570992773095.365493931085205.57740466
2772842.242179871085285.394250192772734.290980331085294.09567184
 2772685.1168603 1085310.81176312772573.257748511085352.10764356
2772426.727509611085415.120647312772352.712235361085432.12415627
2772139.168167071085522.642836272772010.641643531085579.15449837
2771665.85974113 1085709.9421396 2771555.54772751085755.69092953
  2771292.9115231085836.856945962771099.453605061085895.71982677
2770921.416864281085954.732004892770664.363817211086038.74934324
2770362.147239221086131.166259662770222.27258449 1086181.2787565
2770041.235224491086244.291760262769975.721704711086255.29403075
2769889.703953551086284.300016612769819.509448041086319.36126465
2769395.101884371086467.337789432769285.642632441086514.99727374
2769204.648118321086557.921786962769066.534079061086635.37246612
2768804.812188291086786.950076382768454.900602941086993.08986616
2768151.345214961087167.482275632767934.886930511087290.31220992
2767706.535536021087418.991706792767597.730967661087498.05049376
2767401.811644211087612.746777612767134.243522651087768.13880803
2766917.090506431087896.632747682766831.411102741087998.72525585
2766740.389349921088052.172994092766365.699726641088292.00602387
 2766135.23167541088438.632569342766082.794897921088497.23349781
2766033.10267974  1088568.8668452765895.949621961088664.17718241
2765007.990575761089217.97122696
Chan Stop Cuts=-1 



Use User Specified Reach Order=0
GIS Ratio Cuts To Invert=-1
GIS Limit At Bridges=0
Composite Channel Slope=5
