Geom Title=RAS 5.0.3
Program Version=5.03
Viewing Rectangle= 828175.2975 , 847675.2975 , 515070.65 , 481781.37 

Junct Name=A               
Junct Desc=, 0 , 0 ,-1 ,0
Junct X Y & Text X Y=838184,508992.6875,838184.0625,508992.6875
Up River,Reach=Sterp West      ,Upper           
Up River,Reach=Sterp West      ,Trib            
Dn River,Reach=Sterp West      ,Lower           
Junc L&A=700,
Junc L&A=0,

Junct Name=B               
Junct Desc=, 0 , 0 ,-1 ,0
Junct X Y & Text X Y=834826.1875,490967.5,834826.1875,490967.5
Up River,Reach=Sterp West      ,Lower           
Up River,Reach=Sterp East      ,East Branch     
Dn River,Reach=Sterp Main      ,Main Branch     
Junc L&A=694,
Junc L&A=130,

River Reach=Sterp East      ,East Branch     
Reach XY= 83 
     846556.3906     500931.0341     846420.2107     500847.2306
     846089.2327     500675.0406     845911.5787     500741.8698
     845849.8161     500734.6038     845740.8234     500683.7404
     845653.6295     500629.2436      845526.471     500567.4808
     845382.4431     500504.4365     845341.0542     500546.8932
     845315.8726     500572.3569     845273.3647     500633.6034
     845232.9242     500697.1819     845212.5439     500752.9105
     845175.2266     500807.1401     845082.7228      500830.588
     845030.5192     500890.1538     845003.0789     500930.9801
     844990.9762     500974.9099     844949.5226     501041.1296
     844893.7901       501091.59     844832.0321     501119.4564
     844802.6595     501124.7286     844780.0539     501080.1992
     844717.0277     501047.4598     844637.1878     501019.0064
      844573.233     501008.6129     844509.1982     501010.1892
     844463.2495     500999.9131     844048.2495     500762.5348
     843799.5476     500618.5032     843520.6282     500441.1126
     843321.4948     500300.1549     843243.9491     500227.8248
     842137.8745     498680.3931     841594.8678     497902.7522
     841555.1479      497858.601     841360.1896     497691.7348
     841230.7466     497601.1095     841012.0869     497458.2219
     840943.8527     497400.7611     840900.5039     497319.6388
     840856.9532     497249.9379     840878.8948     497113.4969
     840879.5354     497017.7374     840852.0998     496931.7696
     840798.4554     496875.5565     840766.5916     496853.4026
     840631.4924     496791.4029     840291.8065     496644.8042
     840186.1452     496588.2505     839086.4459     495799.0505
     837448.2952     494593.3583     837346.7408     494541.8449
     837215.7508     494438.8185     837178.9555     494387.3055
     837170.1248     494344.6237     837167.1809     494290.1667
     837152.4633     494254.8435     837083.8772     494243.0692
      837016.788     494219.3153     836930.2214     494184.1966
      836889.039     494174.5876     836850.7445     494170.9506
     836714.4553     494073.8113     836687.9632     494054.6778
      836197.529     493697.3146     836016.2334     493563.6844
     835982.3818     493516.5866     835962.5689     493411.0904
      835963.248      493295.817     835898.4882     493112.9047
     835872.2507     493038.7237     835767.6298     492826.5614
     835439.7132     492247.4998     835212.6284     491876.5586
     835134.8634     491709.1712     835059.6388     491588.9746
      835045.248     491533.0693     834924.7127     491275.3278
      834862.308     491141.6131     834834.8016     491023.5916
        834826.2        490967.5
Rch Text X Y=837778.4299782,494791.8091266
Reverse River Text= 0 

Type RM Length L Ch R = 1 ,17318.34,135.1,140.05,137.72
Node Last Edited Time=Nov/04/2007 11:08:35
#Sta/Elev= 43 
       0  895.23   42.71     894   73.05     894   82.57  893.66   117.4  893.22
   164.1     892  195.76     892  201.51  890.01   244.3     888  263.92     888
  302.36  887.52  323.79  887.51  395.91     886  545.57     886  588.06  884.47
  603.73     884  606.69  883.03  608.35  882.49   609.8     882  612.71  880.53
  613.66     880  614.29  879.71  617.58     878  620.17  877.18   623.5  876.45
  629.56   872.3  650.75  872.04  661.47     874  664.71  874.09  665.56  874.09
  682.57  874.43  701.97     874  846.46     874  860.44  875.64  863.63     876
  864.66  876.35  870.37     878  875.88  879.35  878.71     880  918.01     880
  931.71  880.66  934.78  880.71  942.14  880.85
#Mann= 3 , 0 , 0 
       0     .11       0   623.5    .065       0  664.71     .11       0
#XS Ineff= 2 , 0 
       0     622             683       0        
Permanent Ineff=
       T       T
Bank Sta=623.5,664.71
XS Rating Curve= 0 ,0
XS HTab Starting El and Incr=872.54,1, 23 
XS HTab Horizontal Distribution= 5 , 5 , 5 
Exp/Cntr=0.3,0.1

Type RM Length L Ch R = 1 ,17178.30,17066.22,16914.53,17750.86
Node Last Edited Time=Jul/14/2006 11:46:54
#Sta/Elev= 134 
       0  898.53   24.02  898.64   26.61   898.6   36.78  898.63   41.24  898.58
   49.97  898.61   54.23  898.57   98.17  897.83   99.03  897.83  111.66  897.62
  113.55  897.61  182.64  896.54  185.61  896.63  207.76  896.17  208.32  896.15
  218.44  895.85  219.34  895.81  267.66  894.08  284.71  893.36  296.92  892.93
  302.14  892.93  328.67     892  375.65  889.91  376.18   889.9  385.45  889.57
  387.58  889.46  394.48   889.2  399.56  888.92  403.81  888.74  412.05  888.25
  413.05   888.2  424.76  887.99  424.88  887.98  437.19  887.72  438.08  887.69
  445.89  887.51  448.18  887.43  452.21  887.09   456.6  886.96  459.58  886.75
  461.19  886.72   466.6  886.57  475.87  886.33  476.16  886.32  483.02  886.12
  483.44  886.11  497.83  885.72  505.68  885.53  508.23  885.49  518.28  885.25
  522.56   885.1  527.42  884.98  531.45  884.83  535.01  884.74  539.84  884.55
  542.38  884.48  552.25  884.07  552.56  884.06  553.82     884  563.48  883.69
   564.7  883.67  568.99  883.66  570.37  883.64  579.83  883.61  582.28  883.45
  607.86  883.34  613.28  883.21  617.16  883.19  625.38     883  630.42  882.98
  633.93  882.91  638.97  882.89  642.22  882.83  648.13  882.81  652.38  882.74
  655.28  882.65  657.77  882.61  666.12  882.36  667.52  882.33  677.96  882.01
  678.13     882  688.65  881.65  705.83   881.5  708.01  881.39  714.85  881.32
  717.66  881.13  722.14  880.19  722.69  880.12  723.04     880  723.25  872.39
  733.56  872.35  742.93  872.39  742.93  879.13  743.78  879.61  743.91  879.69
   745.3     880  749.91   880.7  753.09  880.63  765.62  880.21  766.64  880.19
   767.3  880.16  773.74  879.93  774.12  879.93  780.85  879.72  782.41  879.72
  792.66  879.45  795.76  879.44  810.68  879.56  813.49  879.74  824.04   879.8
  824.71  879.88  825.09  879.91  829.32     880  846.59  880.82  854.05     880
  854.31     880  870.36  878.66  877.84  878.16  878.17  878.15   881.1     878
   888.9     878  896.69  877.51  908.11  877.16  913.86  877.14  921.14  877.19
  927.13  877.17  931.38  877.03  941.71  876.99  950.87   877.2  960.99  877.17
   964.2  877.01  971.34  877.02  978.05  877.26  992.45  877.24
#Mann= 3 , 0 , 0 
       0     .11       0  723.04    .065       0  742.93     .11       0
Levee=0,,,-1,843.86,880.81,,Levee 1
#XS Ineff= 2 , 0 
       0     724     924     745       0     924
Permanent Ineff=
       T       T
Bank Sta=723.04,742.93
XS Rating Curve= 0 ,0
XS HTab Starting El and Incr=872.85,1, 26 
XS HTab Horizontal Distribution= 5 , 5 , 5 
Exp/Cntr=0.3,0.1

Type RM Length L Ch R = 1 ,219.9056,53.82,89.05,67.77
Node Last Edited Time=Jan/13/2008 12:35:47
#Sta/Elev= 34 
 -286.07  852.57 -278.89     852 -276.52     852 -267.07  851.84 -264.27  851.77
  -210.6     850  -73.53     850  -58.31   849.4-56.2099  849.32  -39.19  849.06
  -32.64  849.05  -24.64  848.73-2.23999     848  189.41     848  195.15  846.62
  196.86     846   201.5   844.9  205.26  843.42  219.02  843.21  235.29  843.42
  241.55   844.9  249.22     846  255.63  847.27  259.08     848  319.31     848
  345.77  849.87   348.1     850  350.07     850  369.75  850.96  385.95  851.61
  391.53     852  392.36     852  410.75  852.73  429.03  853.23
#Mann= 3 , 0 , 0 
 -286.07    .045       0  196.86    .035       0  249.22    .045       0
#XS Ineff= 4 ,-1 
    -100     124   848.7     124   207.5  847.75   232.5     320  847.75
     320     429   848.7
Permanent Ineff=
       T       T       T       T
Bank Sta=196.86,249.22
XS Rating Curve= 0 ,0
XS HTab Starting El and Incr=843.71,0.48, 20 
XS HTab Horizontal Distribution= 5 , 5 , 5 
Exp/Cntr=0.3,0.1

Type RM Length L Ch R = 1 ,130.8584,3.2,130.86,2.62
Node Last Edited Time=Nov/04/2007 11:08:35
#Sta/Elev= 40 
       0  854.78    4.79     854   24.18     852   73.45     850   239.5     850
  256.38  849.48  274.96  849.33  280.15  849.24  290.94  848.95   298.1  848.83
  315.82  848.27  317.37  848.23  323.45     848  337.08     848  405.23     846
  417.23   844.8  422.23   843.5  437.73   843.2  452.23   843.5  457.23   844.8
  470.09  845.15  521.53   846.8  535.27     846  540.29     846  551.38  846.53
  561.05  846.84  573.54  847.01  595.24  847.47  611.91  847.58  636.23     848
  637.28     848  640.21  848.42  644.01  848.91  647.91   849.5   655.4  850.05
  663.84  850.27  675.55  851.01  686.31     852  703.51     852  704.99  852.07
#Mann= 3 , 0 , 0 
       0    .045       0  417.23    .035       0  457.23    .045       0
#XS Ineff= 2 , 0 
       0     375             571       0        
Permanent Ineff=
       T       T
Bank Sta=417.23,457.23
XS Rating Curve= 0 ,0
XS HTab Starting El and Incr=843.7,0.55, 20 
XS HTab Horizontal Distribution= 5 , 5 , 5 
Exp/Cntr=0.3,0.1

River Reach=Sterp West      ,Upper           
Reach XY= 27 
       841626.03       514321.66       841244.52       514332.83
       841136.24       514312.07       840991.94        514187.4
       840979.62        514151.1       840982.06       514012.24
       840973.54       513704.81         840962.         513643.
        840968.6       513498.06       840958.56       513383.38
       840953.28       513200.01       840923.93        511666.9
       840902.39        510859.9       840878.51       509940.69
       840871.32       509281.61       840865.86        509189.7
       840833.62       509125.65        840801.1        509052.3
        840760.3       509014.62       840728.41       509008.85
       840556.92       509014.04       840504.31       509002.78
       840215.04       509003.45       840073.95       509008.29
       839682.35       509008.33        838939.9       509004.54
         838184.        508992.7
Rch Text X Y=841012.8687555,512526.7093886
Reverse River Text= 0 

Type RM Length L Ch R = 1 ,43320   ,150,150,150
XS GIS Cut Line=3
       841325.11       514221.02       841293.22       514316.25
        841211.2       514662.03
Node Last Edited Time=Jul/21/2026 13:11:34
#Sta/Elev= 207 
       0  874.48     .68   874.5    2.79  874.43    6.27   874.4    9.43  874.42
   11.22  874.37   15.44  874.23   17.33  874.19   21.77  874.22   25.99  874.19
    30.2   874.2   32.31  874.19   34.42  874.14   40.75  873.96   44.19  874.04
   44.97  874.03   45.77  874.01   47.08  873.95   48.93  873.76   50.51  873.62
    51.3  873.58   53.41  873.59   54.45  873.63   55.51  873.66   57.62  873.64
   58.41  873.61   61.84  873.53   63.95  873.65   66.06   873.6   68.17  873.43
   72.39  873.15    74.5  873.21   76.61  873.31   77.37  873.24   78.72  873.07
   80.53  872.61   80.82  872.55   82.11  872.35   82.93  872.25   85.27  872.06
   87.15  871.89   89.26   871.8   91.37  871.86   93.48  871.94   95.59  871.97
    97.7  872.05   99.49  872.15  101.88   872.2  103.93  872.07  104.43  871.91
  105.99  871.32   106.5  870.96  108.04  869.94  109.41  869.14     111     868
     116     868  118.32  869.47  120.38  870.59  122.43  871.61  124.49  871.99
  126.54  871.98   128.6  871.85  130.66  871.77  132.71  871.77  134.33  871.82
  135.99   871.9  138.88  872.14  140.93   872.2  142.99  872.13  145.04  872.09
   147.1  871.97  149.15  871.89  151.21  871.94  153.27  872.03  155.32  871.99
  157.38  871.87  159.72  871.84  160.91  871.86  161.49  871.86  163.54  871.91
   165.6     872  167.65  872.17  171.77  872.37  173.82  872.42  175.82  872.28
  177.93  872.19  179.99  872.26  182.04  872.29  185.83  872.29  190.82  872.14
  192.32  872.12  194.38  872.17  198.49  872.21  200.79  872.31  204.65  872.35
  208.76  872.53  210.82  872.46  212.88   872.3  214.08  872.31  214.93  872.31
  216.99  872.53  219.04  872.59   221.1  872.53  223.15  872.49  225.21  872.52
  227.26   872.6  229.32  872.63  231.37  872.72  233.43  872.77  235.49  872.75
  237.34  872.83     239  872.88  243.71   872.9  245.65  872.83  247.82  872.82
  248.97  872.75  249.87  872.68  251.93  872.62  253.99  872.73  256.04  872.79
  258.94   872.7  260.15  872.63  262.48  872.56  264.26  872.56  266.32   872.6
   268.9  872.75  270.43  872.82  272.23  872.87  273.89  872.88  274.54  872.88
  278.65  872.72  280.71  872.69  282.76   872.7  284.82  872.74  286.87   872.8
  290.98  873.05  293.04  873.13  295.49  873.17  297.15  873.22  301.26  873.43
  302.13  873.42  303.79  873.43  305.81  873.51  307.43  873.55  309.48  873.52
   312.1   873.6  313.59  873.68  315.42  873.72  317.71  873.83  318.75  873.84
  320.41  873.82  323.87  873.67  327.98  873.92  332.09  874.03   336.2  874.31
  338.26  874.35  340.32  874.34  342.37  874.41  344.43  874.55  346.48  874.59
  350.59   874.6  352.65  874.64  356.76   874.8  358.82   874.8  360.87  874.74
  362.93  874.72  367.04   874.8  369.09   874.9  371.15  875.04   373.2   875.1
  375.13  875.11   376.9  875.08  380.22  875.12  381.43  875.11  383.54  875.15
  385.54  875.26  387.59  875.31  389.65  875.34   391.7  875.33  393.51  875.38
  395.81  875.48  400.16  875.47  401.98  875.48  404.04  875.52  406.09  875.52
  414.31  875.73  416.37   875.8  418.42  875.81  420.09  875.78  422.54  875.82
  424.59     876  426.65  876.12  427.13  876.11  430.76  875.97  432.81  876.02
  434.87  876.01  436.92  875.91  438.37   875.9  438.98  875.87  443.35     876
  445.15  876.08   447.2  876.07  449.26   876.1  451.31  876.21  451.66  876.26
  454.98  876.64   455.8  876.71
#Mann= 3 , 0 , 0 
       0     .07       0  101.88    .045       0  124.49     .07       0
Levee=-1,60,875,-1,200,874,,
#XS Ineff= 2 , 0 
       0   80.53          231.53       0        
Permanent Ineff=
       F       F
Bank Sta=101.88,124.49
XS Rating Curve= 0 ,0
XS HTab Starting El and Incr=868.5,0.77, 20 
XS HTab Horizontal Distribution= 5 , 5 , 5 
Exp/Cntr=0.3,0.1

Type RM Length L Ch R = 1 ,43170   ,172,172,172
XS GIS Cut Line=3
       841275.93       514022.44       841066.32       514454.01
       840994.48       514651.45
Node Last Edited Time=Jun/15/2026 15:44:35
#Sta/Elev= 195 
       0  874.19     5.8  874.08    8.03  874.09   12.47  873.97   16.92  874.01
   20.45  873.97   24.94  873.94   28.04  873.89    32.3  873.88   34.71  873.96
   36.91  874.11   39.16  874.21   41.38   874.2   46.03  873.98   50.27  873.97
   53.38     874   56.37  873.99   59.17  873.86   65.84  873.94   69.84  873.88
    73.5  873.87   77.32  873.91    86.3  873.84   88.07  873.75   92.52  873.74
   96.78  873.87  100.97  873.83  102.76   873.9  108.08  873.92  110.31  873.83
  112.53  873.87  116.98   874.1  120.72  873.94  123.71  873.96  125.87  873.86
  128.09   873.9   131.2  874.01  134.19  874.03  139.21  873.98  143.66  874.01
   148.1   874.1  152.55  874.07  156.64  874.13  159.22  874.07  164.12  874.05
  168.11  874.11  170.34  874.04  174.78  873.98  178.79  873.99  180.58  874.02
  183.37  873.96  185.07  873.97  187.95  873.93  192.52  874.02   194.8  874.09
  199.24  874.14  201.47  874.23  204.53  874.27  206.26  874.25  208.14   874.3
  212.58  874.53  214.81  874.56  219.25  874.71   223.7  874.75  228.15  874.97
  233.73  874.95  237.45  875.05  242.88  875.08  244.94  875.12  252.42   875.1
  257.05  874.85   259.9  874.88  263.72  874.67  267.38  874.72  268.88  874.71
  272.61  874.61  276.36  874.57  280.85  874.41  285.34  874.05  292.63  873.26
  297.81  872.42   299.3  872.21  302.39  871.64  303.74  871.45  305.97  871.02
  308.19  870.49     315   867.2     317     867     324     867     326   867.2
  330.42  869.93  332.65  870.56  334.73  871.01  337.09  871.42  340.72  871.85
  343.59  872.32  345.99  872.64  348.21  872.86  350.43  872.88  354.88  872.84
  357.33  872.93  361.67  873.27     366  873.38  368.22  873.49  370.45  873.48
  375.14  873.66  380.22  873.67  384.12   873.8  388.23  873.78  390.46  873.86
  392.68  874.01  394.59  874.07  398.53  874.01  400.58  874.01   403.8  873.97
  410.47  874.15  412.69   874.1  414.91  874.14  417.04  874.27  418.54  874.29
  421.58  874.13  423.81  874.17  429.01  874.37   433.5   874.4  434.92  874.38
  437.99  874.47  442.48  874.52  444.31  874.47  446.97  874.51  451.46   874.5
  454.94  874.36  458.94  874.45  461.61  874.42  464.93  874.44  468.28  874.38
  470.92  874.42  474.95  874.71   476.9  874.77  479.78  874.75  483.67  874.94
  487.92  874.89  492.18  875.04   495.5  874.96  500.19  875.02  504.87  875.01
  507.08  875.04  512.67  875.19  517.72  875.27  519.85  875.25  521.97  875.17
  525.15  875.19  528.36  875.13  530.49  875.16  536.87  875.01     539  874.99
  543.26  875.17  545.39  875.18  547.51  875.11  549.64  874.98  551.44  874.91
  556.03  874.83  558.16  874.85  562.61  875.05  566.67  874.93   568.8  874.97
  570.93  875.09  575.18     875  579.44  874.97  581.57     875  586.01  875.16
  587.95  875.18  592.21  875.17  595.38  875.25  598.59  875.26  604.98  875.47
  612.54  875.52  615.62  875.66  623.46  875.87  626.26  875.97  630.52  875.96
  632.65     876   636.9  875.99  643.29  876.13  648.43  876.33  653.11  876.43
  656.06  876.52  658.18  876.62  662.44  876.74  664.04  876.72  668.83  876.75
  670.95   876.8  677.34   877.1   681.6  877.24  685.88  877.46  689.88  877.78
#Mann= 3 , 0 , 0 
       0     .07       0  292.63    .045       0  348.21     .07       0
#XS Ineff= 2 , 0 
       0  292.63          348.21       0        
Permanent Ineff=
       F       F
Bank Sta=292.63,348.21
XS Rating Curve= 0 ,0
XS HTab Starting El and Incr=867.5,0.32, 20 
XS HTab Horizontal Distribution= 5 , 5 , 5 
Exp/Cntr=0.3,0.1

Type RM Length L Ch R = 3 ,43084   ,,,
Node Name=I-94
Node Last Edited Time=Jun/12/2026 17:54:44
Bridge Culvert--1,0,-1,-1, 0 
Deck Dist Width WeirC Skew NumUp NumDn MinLoCord MaxHiCord MaxSubmerge Is_Ogee
1,170,2.6,0, 8, 8, 876.8, , 0.95, 0, 0,0,,
       0     221     316     316     327     327     581     800
   876.8   876.8   876.8   876.8   876.8   876.8   876.8   876.8
                           874.8   874.8                        
       0     167     262     262     273     273     527     800
   876.8   876.8   876.8   876.8   876.8   876.8   876.8   876.8
                           874.8   874.8                        
BR Coef=-1 , 0 , 0 ,0, 0 ,,,0.8164966,0,,1,874.8
WSPro=,,,, 1 ,,,, 0 ,,,, 0 ,,,,-1 ,-1 ,-1 , 0 , 0 , 0 , 0 , 0 
BC Design=,, 0 ,, 0 ,,,,,,
BC Use User HTab Curves=0
BC User HTab FreeFlow(D)= 0 

Type RM Length L Ch R = 1 ,42998   ,100,105,110
XS GIS Cut Line=3
        841138.8       513971.62       841092.35       513995.11
       840797.26       514537.66
Node Last Edited Time=Jun/15/2026 15:44:12
#Sta/Elev= 198 
       0  876.27     1.1  876.27    5.58  876.09   10.06  875.68   14.16  875.19
   16.79  874.93   19.03  874.63   21.27  874.39   23.51  874.05   25.75  873.77
   27.99  873.61   30.24  873.55   32.48  873.35   36.96   873.1    39.2  873.01
   43.68  873.15   48.17  872.97   52.05  873.08   54.32  873.05   57.27  873.09
   61.79  872.96   64.65  873.07   69.91  873.02    73.5  873.17   75.45  873.12
   77.92  873.24      80   873.3   84.55   873.1   86.83   873.2   91.38  873.23
   93.66  873.34   95.94   873.5   98.21   873.6  102.77  873.51  105.94  873.66
  108.89  873.63  110.36  873.66  115.95  873.93  120.68  874.01  125.11  873.92
  127.81   873.9   132.7  873.99  136.88  873.97  139.85  873.98  144.28  873.93
   148.3     874  150.58  874.09  155.13  874.13  157.81  874.25  159.68  874.24
  163.45   874.1  166.18  874.04  171.07  873.99  174.56  873.77  178.74  873.62
  184.09  873.48  187.11  873.34  191.56  873.26  199.67  872.84  203.26  872.69
  206.21  872.51  208.04  872.34  212.05  872.07  215.06  871.91  223.91  871.16
  234.81  870.09  237.34   869.8  241.64  869.42  243.92  869.27  245.72  869.21
  248.47  868.97  250.75  868.67  253.03  868.33  257.82  867.76  259.86   867.6
     263   867.2     265     867     272     867     274   867.2   279.2  867.21
  282.62  867.74   284.9  868.27  287.18  868.56  290.27  868.66  293.22  868.59
  295.95  868.41  297.64  868.62  299.11  868.56  300.13  868.28  302.06  868.43
  303.54  868.48  304.32   868.4  305.39  868.56  306.49  868.88  307.96  869.08
   308.5  869.03  313.86  869.34  315.34  869.49  319.05  869.56  319.76  869.63
  321.33  869.57  322.71  869.74   323.6  869.72  325.25  869.44  327.13  869.49
  328.16  869.45  329.43  869.73  331.56   870.3  332.71  870.54  339.54   870.9
  341.99   870.8  344.09   870.9  349.25  871.38   353.2  871.62  355.48  871.87
  357.75  871.97  360.03     872  362.31  872.25  364.59  872.56  366.86  872.76
  368.42  872.81  372.85  873.06  378.25  873.44  380.52  873.69   382.8  873.83
  385.08  873.81  387.59  873.92  391.91  873.94  394.18  873.86  396.46  873.85
  401.01  873.71  406.76  873.68  410.12  873.77  417.34  873.84  420.03  873.83
  423.78  873.92  426.06  873.88  428.33  873.78  430.61  873.76  434.78   873.9
  439.72  873.72  444.27  874.02  446.55  874.03   451.1  873.94  453.38  873.98
  455.01  873.96  460.21  873.76  463.38   873.6   468.7  873.55  476.14  873.61
  485.25  873.81   489.8  873.73  495.24  873.85  496.87  873.94  505.24  874.21
  510.29   874.3  514.85  874.26   517.8  874.32  521.98  874.55  524.73  874.57
  528.51  874.68  533.06  874.62  537.61  874.75  539.89  874.78  542.91  874.92
  548.33  875.11  553.55  875.39   558.1  875.41  563.07  875.61  569.49  875.75
  571.76  875.72  574.04  875.96  576.32  876.09   579.3  876.02  585.19   876.2
  588.96  876.35  592.57   876.3  594.53  876.38  602.89  876.42   605.7  876.41
  607.31  876.51  610.47  876.84  612.74  876.95  619.57  877.09  621.85  877.06
  623.53  876.91   626.4  876.76  630.96  876.74  636.81  876.82  640.06  876.81
  644.62  876.91  646.89  877.03  650.08     877   654.5  877.18  658.93  877.26
  662.83   877.5  665.11  877.49  669.66  877.61
#Mann= 3 , 0 , 0 
       0     .07       0  250.75    .045       0  290.27     .07       0
#XS Ineff= 2 , 0 
       0  250.75          290.27       0        
Permanent Ineff=
       F       F
Bank Sta=250.75,290.27
XS Rating Curve= 0 ,0
XS HTab Starting El and Incr=867.5,0.32, 20 
XS HTab Horizontal Distribution= 5 , 5 , 5 
Exp/Cntr=0.3,0.1

Type RM Length L Ch R = 1 ,42893   ,100,105,110
XS GIS Cut Line=4
       841140.77       513967.33        841087.1       513990.09
       841040.39       514026.99       840605.68       514279.52
Node Last Edited Time=Jun/15/2026 15:43:50
#Sta/Elev= 287 
       0  876.27    1.03  876.33     2.5  876.29     3.2  876.29    5.37  876.11
    9.72  875.57   16.24  874.69   18.41  874.47   22.75  873.92   25.39  873.73
   29.27  873.53   33.61  873.07   34.54  873.04   35.79  872.98   37.96  873.01
   40.64  873.09    42.3  873.11   48.27  873.08   51.32  873.11   52.84  873.08
    55.9  872.99   57.21  872.98   60.84  873.16   64.06  873.16   67.29   873.1
   68.87  873.19   70.12  873.29   70.52   873.3   71.72  873.29   72.67  873.23
   73.14  873.22   75.22  873.23   80.19  873.36   81.69  873.34   83.11  873.35
   85.41  873.39   90.23  873.44   95.61   873.6   96.32   873.6   98.16  873.55
  100.71  873.44  102.78  873.45   105.8  873.44  107.32  873.41  108.35  873.41
  110.16  873.36  112.46  873.38  113.45  873.35  115.86  873.31  118.48  873.37
  120.19  873.46  120.79  873.48  121.66  873.48  123.14  873.45  127.13  873.42
  130.05  873.46   131.9  873.45  134.83  873.29  139.21  873.18  141.61  873.03
  143.92  873.02  146.24  872.89  147.03  872.82  148.55  872.73  150.86  872.66
  153.85  872.51  155.49  872.48   157.8  872.55  158.23  872.53  158.98  872.44
  160.12  872.25  162.96  871.69  164.74   871.5  165.55  871.36  167.05  871.14
  169.94   870.3  171.68  869.82  176.31  868.11  177.25  867.86  178.62  867.52
  180.93  867.05  183.24  866.66  184.57  866.35  185.56  866.07  187.88  865.69
     190   865.5     194   865.5  196.27  865.66  198.62  865.71  201.75  866.58
  202.91   867.1  203.59  867.41  204.06   867.6  205.05  867.98  206.37  868.42
  208.69  868.97  212.37  869.66  213.31  869.85  215.63  870.12  217.94  869.93
   218.7  869.81  221.15  869.53  222.57  869.34  224.07  869.22  224.88  869.11
  227.19  868.94   229.5  868.96  231.39     869  234.13  869.12  236.44  869.17
  238.61  869.14  240.17  869.17  241.63  869.15  242.76  869.08  243.09  869.06
  244.56  869.07   245.7  869.09  247.48   869.2  248.94  869.23  250.32  869.21
  252.63  869.37   254.8  869.43  257.26  869.38  259.57  869.29   262.5  869.31
   264.2  869.27  266.51  869.14  267.96   869.2  268.82  869.27  270.46  869.35
  271.14  869.38  272.35  869.39  273.45  869.38  275.28  869.32  278.08  869.28
  280.39  869.23  281.13  869.22  285.02  869.25  286.39  869.24  287.33  869.26
  289.91  869.37  291.95  869.41  294.35  869.68  296.58  869.96  297.23     870
  298.69  870.02  300.15  869.97  301.61  869.89  303.52  869.71  304.54  869.66
  305.83  869.63  307.47   869.7  310.46  869.85  311.86  869.88  313.32  869.95
  315.08  869.95  316.25  869.96   317.4  869.95  319.71  869.98  322.02  869.95
  324.34  870.03  325.02  870.03  327.95  869.98  329.41  869.99  331.27  870.05
  332.34  870.06   333.8  870.05   335.9  869.96  339.65  869.96  340.53  869.98
  342.58  870.07  344.04  870.16  345.15  870.25  349.78  870.24  355.75  870.34
  359.03  870.34  364.53  870.39  365.97  870.44  368.28  870.55   370.6   870.6
  372.91  870.69  375.22  870.91  377.53  871.01  382.16  870.87  384.47  870.83
  390.86  870.95  393.89  870.95  396.04     871  396.71     871  398.35  870.95
  399.64  870.98  400.66  870.99  402.57  871.04   407.6  871.13  409.92  871.11
  412.23  871.04  414.54  871.08  418.66  871.23  421.48  871.39   428.9  871.46
  433.71  871.62  436.22  871.76  437.67  871.81  439.98  871.78   442.3   871.7
  444.61  871.81  446.46  871.99  446.92  872.02  447.92  872.01  449.64  871.97
  450.85  871.99  451.55  872.02  453.86  872.08  456.18  872.06  459.63     872
  463.11  871.96  465.43  872.11  466.94  872.16  470.05  872.19  474.26  872.29
  475.72  872.34  477.51  872.42  480.11  872.51  481.62  872.58  483.93  872.66
  485.96  872.79  488.56  872.88  489.45  872.85  491.81  872.72  493.28  872.66
  494.74  872.72   496.2  872.82  497.66  872.85  500.59  872.82  502.43  872.85
  505.38  873.03  506.44  873.09  507.06   873.1  509.37  873.09  510.83  873.05
   512.3  873.03     514  873.06  516.31  873.14  520.94  873.21  523.25  873.32
  525.56  873.54  528.39  873.68  530.19  873.79  531.32  873.91  533.25  874.18
  534.82  874.31  537.23  874.28  538.63  874.28  539.44   874.3  541.76   874.5
  544.07  874.63  546.38  874.62  549.18  874.71  553.32  874.81  554.72   874.8
  555.63  874.77  557.95  874.63  560.26  874.55  561.12  874.53  562.57  874.54
  566.43  874.63  569.09  874.68  574.14  874.84  576.45     875  578.76  875.13
  581.08  875.22  583.99  875.52   585.7  875.78  588.37  876.15  590.33  876.45
   591.3  876.59  594.95  877.05  597.27  877.33  600.08  877.73  601.89  877.96
  604.21  878.32  604.92   878.4  611.14  878.91  613.46  879.13  616.17  879.36
  617.64  879.44  620.56  879.53
#Mann= 3 , 0 , 0 
       0     .07       0  169.94    .045       0  215.63     .07       0
#XS Ineff= 2 , 0 
       0  169.94          215.63       0        
Permanent Ineff=
       F       F
Bank Sta=169.94,215.63
XS Rating Curve= 0 ,0
XS HTab Starting El and Incr=866,0.39, 21 
XS HTab Horizontal Distribution= 5 , 5 , 5 
Exp/Cntr=0.3,0.1

Type RM Length L Ch R = 1 ,42788   ,260,260,260
XS GIS Cut Line=3
       841142.73       513963.03       841015.52       514009.06
        840320.9       514075.51
Node Last Edited Time=Jun/15/2026 15:43:24
#Sta/Elev= 199 
       0  876.21     3.1  876.13    7.35   875.8    11.6  875.25   13.73   874.9
   17.98  874.29   22.24  873.94   24.63  873.67   28.62  873.47   32.87   873.1
      35  873.03   39.25  873.14   41.38  873.11   45.63  873.19   52.02  873.06
   54.14   873.1   62.65     873   71.16  873.22   75.41  873.34   79.67  873.35
   86.05  873.17   91.79  873.17   96.68  873.31  107.31  873.32  111.57  873.41
  115.82  873.37  120.08  873.41  124.59  872.99  126.46  872.98  128.58  873.15
  130.71  873.13  134.96  872.76     139  872.84  141.01  872.68  143.02  872.36
  147.04  871.83  149.05   871.4  151.06   870.6  155.07  868.66  157.08  867.27
  159.09  866.11  160.94  865.43  163.16   864.8   164.9  864.52     171     864
     172     864  177.17  864.23   183.2  866.02  187.22  866.93  193.25  868.44
  195.26  868.71  199.27  868.52  203.29  868.17  207.31  868.01  211.33  867.98
  219.37  868.03   227.4  868.36  229.41  868.39  233.43  868.14  237.45  868.01
  241.47  868.02  245.48  868.19  255.53  868.94  261.56  868.94  265.58  869.03
  269.59  868.99  275.62  869.14  279.64  869.31  283.66  869.27  287.58  869.49
  289.69  869.54   293.7  869.51  299.73  869.76  307.77  869.87  311.79  869.74
  317.81  869.78  321.83  869.91  325.85  869.97  327.86  869.82  333.89  869.67
   337.9  869.73  341.92  869.65  343.93  869.66  349.96  869.54  353.98  869.64
     358  869.65  362.01  869.74  372.06  869.63  378.09  869.76   380.1  869.65
  384.11  869.64  386.12  869.56  390.14  869.51  394.11  869.39   402.2  869.24
  406.21  869.31  410.62  869.26  414.25  868.97  416.26  869.01  420.28  869.34
   424.3  869.42  428.32  869.79  434.34  869.92  444.39  869.92  450.42  869.96