Geom Title=Wide XS
Program Version=7.00
Viewing Rectangle=-450534733.33 , 316308066.67 , 450534733.33 ,-316308066.67 

River Reach=WideRiver       ,WideReach       
Reach XY= 2 
         100000.         100000.              0.              0.
Rch Text X Y=0.8242259,0.7331512
Reverse River Text= 0 

Type RM Length L Ch R = 1 ,1000    ,150,150,150
XS GIS Cut Line=2
 33285.363395139166714.63660486132487.9520345485167512.047965452
Node Last Edited Time=Jul/06/2026 10:35:52
#Sta/Elev= 219 
    -350  872.24 -339.56  871.09 -302.66  870.97  -281.1  871.87 -257.99   871.1
 -218.97  871.08 -208.07  871.58 -187.05  873.27 -166.03   872.9 -155.12  873.25
 -145.01  872.91  -138.1  871.84  -105.6  872.17  -97.72  871.88  -71.39  873.06
   -47.3  873.55  -40.55  872.99       0  874.48     .68   874.5    2.79  874.43
    6.27   874.4    9.43  874.42   11.22  874.37   15.44  874.23   17.33  874.19
   21.77  874.22   25.99  874.19    30.2   874.2   32.31  874.19   34.42  874.14
   40.75  873.96   44.19  874.04   44.97  874.03   45.77  874.01   47.08  873.95
   48.93  873.76   50.51  873.62    51.3  873.58    53.4  873.59   54.45  873.63
   55.51  873.66   57.62  873.64   58.41   873.6   61.84  873.53   63.95  873.65
   66.06   873.6   68.17  873.42   72.39  873.15    74.5  873.21   76.61  873.31
   77.37  873.24   78.71  873.07   80.53  872.61   80.82  872.54   82.11  872.35
   82.93  872.25   85.27  872.06   87.15  871.88   89.26   871.8   91.37  871.86
   93.48  871.94   95.59  871.97    97.7  872.05   99.49  872.15  101.88   872.2
  103.93  872.07  104.43  871.91   105.2  871.23  111.06   867.1  118.19  866.84
  122.99  871.71  124.49  871.99  126.54  871.98   128.6  871.85  130.65  871.77
  132.71  871.77  134.33  871.82  135.99   871.9  138.88  872.14  140.93   872.2
  142.99  872.13  145.04  872.09   147.1  871.97  149.15  871.89  151.21  871.94
  153.27  872.03  155.32  871.99  157.38  871.87  159.72  871.84  160.91  871.86
  161.49  871.86  163.54   871.9   165.6     872  167.65  872.17  171.76  872.37
  173.82  872.42  175.82  872.28  177.93  872.19  179.99  872.26  182.04  872.29
  185.83  872.29  190.82  872.14  192.32  872.12  194.38  872.17  198.49  872.21
  200.79  872.31  204.65  872.35  208.76  872.53  210.82  872.46  212.87   872.3
  214.08   872.3  214.93  872.31  216.99  872.53  219.04  872.59   221.1  872.53
  223.15  872.49  225.21  872.52  227.26   872.6  229.32  872.63  231.37  872.72
  233.43  872.77  235.49  872.75  237.34  872.83     239  872.88  243.71   872.9
  245.64  872.83  247.82  872.82  248.97  872.75  249.87  872.68  251.93  872.62
  253.98  872.73  256.04  872.79  258.94   872.7  260.15  872.63  262.48  872.56
  264.26  872.56  266.32   872.6   268.9  872.75  270.43  872.82  272.23  872.87
  273.89  872.88  274.54  872.88  278.65  872.72  280.71  872.69  282.76   872.7
  284.82  872.74  286.87   872.8  290.98  873.05  293.04  873.13  295.49  873.17
  297.15  873.22  301.26  873.43  302.13  873.42  303.79  873.43  305.81  873.51
  307.43  873.55  309.48  873.52   312.1   873.6  313.59  873.68  315.42  873.72
   317.7  873.83  318.75  873.84  320.41  873.82  323.87  873.67  327.98  873.92
  332.09  874.03   336.2  874.31  338.26  874.35  340.32  874.34  342.37  874.41
  344.43  874.55  346.48  874.59  350.59   874.6  352.65  874.64  356.76   874.8
  358.81  874.79  360.87  874.74  362.93  874.72  367.04   874.8  369.09   874.9
  371.15  875.04   373.2   875.1  375.13  875.11   376.9  875.08  380.22  875.12
  381.43  875.11  383.54  875.15  385.54  875.26  387.59  875.31  389.65  875.34
   391.7  875.33  393.51  875.38  395.81  875.48  400.16  875.47  401.98  875.48
  404.04  875.52  406.09  875.52  414.31  875.73  416.37   875.8  418.42  875.81
  420.09  875.78  422.54  875.82  424.59     876  426.65  876.12  427.13  876.11
  430.76  875.97  432.81  876.02  434.87  876.01  436.92  875.91  438.37   875.9
  438.98  875.87  443.35     876  445.15  876.08   447.2  876.07  449.26   876.1
  451.31  876.21  451.66  876.26  452.93  876.22  777.71  877.22
#Mann= 7 ,-1,0
    -350     .05       0       0     .07       0  101.88    .045       0
   105.2     .03       0  122.99    .045       0  124.49     .07       0
  452.93     .06       0
Bank Sta=101.88,124.49
XS Rating Curve= 0 ,0
XS HTab Starting El and Incr=867.34,0.49, 20 
XS HTab Horizontal Distribution= 5 , 5 , 5 
Exp/Cntr=0.3,0.1

Type RM Length L Ch R = 1 ,500     ,150,150,150
XS GIS Cut Line=2
-66714627.63922766714627.6392274-67512039.02743967512039.0274394
Node Last Edited Time=Jul/06/2026 11:40:06
#Sta/Elev= 219 
    -350  872.24   10090  871.09   46990  870.9768549.99  871.8791660.01   871.1
  130680  871.08  141580  871.58  162600  873.27  183620   872.9  194530  873.25
  204640  872.91  211550  871.84  244050  872.17  251930  871.88  278260  873.06
  302350  873.55  309100  872.99  349650  874.48  350330   874.5  352440  874.43
  355920   874.4  359080  874.42  360870  874.37  365090  874.23  366980  874.19
  371420  874.22  375640  874.19  379850   874.2  381960  874.19  384070  874.14
  390400  873.96  393840  874.04  394620  874.03  395420  874.01  396730  873.95
  398580  873.76  400160  873.62  400950  873.58  403050  873.59  404100  873.63
  405160  873.66  407270  873.64  408060   873.6  411490  873.53  413600  873.65
  415710   873.6  417820  873.42  422040  873.15  424150  873.21  426260  873.31
  427020  873.24  428360  873.07  430180  872.61  430470  872.54  431760  872.35
  432580  872.25  434920  872.06  436800  871.88  438910   871.8  441020  871.86
  443130  871.94  445240  871.97  447350  872.05  449140  872.15451530.8   872.2
453580.6  872.07454080.5  871.91  454851  871.23460710.4   867.1467840.2  866.84
472640.3  871.71474140.8  871.99  476191  871.98478250.9  871.85480300.9  871.77
482360.4  871.77483980.9  871.82485640.8   871.9488530.8  872.14  490581   872.2
492640.8  872.13  494691  872.09  496750  871.97  498800  871.89  500860  871.94
  502920  872.03  504970  871.99  507030  871.87  509370  871.84  510560  871.86
  511140  871.86  513190   871.9  515250     872  517300  872.17  521410  872.37
  523470  872.42  525470  872.28  527580  872.19  529640  872.26  531690  872.29
  535480  872.29  540470  872.14  541970  872.12  544030  872.17  548140  872.21
  550440  872.31  554300  872.35  558410  872.53  560470  872.46  562520   872.3
  563730   872.3  564580  872.31  566640  872.53  568690  872.59  570750  872.53
  572800  872.49  574860  872.52  576910   872.6  578970  872.63  581020  872.72
  583080  872.77  585140  872.75  586990  872.83  588650  872.88  593360   872.9
  595290  872.83  597470  872.82  598620  872.75  599520  872.68  601580  872.62
  603630  872.73  605690  872.79  608590   872.7  609800  872.63  612130  872.56
  613910  872.56  615970   872.6  618550  872.75  620080  872.82  621880  872.87
  623540  872.88  624190  872.88  628300  872.72  630360  872.69  632410   872.7
  634470  872.74  636520   872.8  640630  873.05  642690  873.13  645140  873.17
  646800  873.22  650910  873.43  651780  873.42  653440  873.43  655460  873.51
  657080  873.55  659130  873.52  661750   873.6  663240  873.68  665070  873.72
  667350  873.83  668400  873.84  670060  873.82  673520  873.67  677630  873.92
  681740  874.03  685850  874.31  687910  874.35  689970  874.34  692020  874.41
  694080  874.55  696130  874.59  700240   874.6  702300  874.64  706410   874.8
  708460  874.79  710520  874.74  712580  874.72  716690   874.8  718740   874.9
  720800  875.04  722850   875.1  724780  875.11  726550  875.08  729870  875.12
  731080  875.11  733190  875.15  735190  875.26  737240  875.31  739300  875.34
  741350  875.33  743160  875.38  745460  875.48  749810  875.47  751630  875.48
  753690  875.52  755740  875.52  763960  875.73  766020   875.8  768070  875.81
  769740  875.78  772190  875.82  774240     876  776300  876.12  776780  876.11
  780410  875.97  782460  876.02  784520  876.01  786570  875.91  788020   875.9
  788630  875.87  793000     876  794800  876.08  796850  876.07  798910   876.1
  800960  876.21  801310  876.26  802580  876.22 1127361  877.22
#Mann= 7 ,-1,0
    -350     .05       0  349650     .07       0451530.8    .045       0
  454851     .03       0472640.3    .045       0474140.8     .07       0
  802580     .06       0
Bank Sta=451530.8,474140.8
XS Rating Curve= 0 ,0
XS HTab Starting El and Incr=867.34,0.49, 20 
XS HTab Horizontal Distribution= 5 , 5 , 5 
Exp/Cntr=0.3,0.1

LCMann Time=Dec/30/1899 00:00:00
LCMann Region Time=Dec/30/1899 00:00:00
LCMann Table=0
Chan Stop Cuts=-1 



Use User Specified Reach Order=0
GIS Ratio Cuts To Invert=-1
GIS Limit At Bridges=0
Composite Channel Slope=5
